Version 4.1
SHEET 1 4016 1132
WIRE 704 -48 608 -48
WIRE 864 -48 768 -48
WIRE 1392 -48 1296 -48
WIRE 1552 -48 1456 -48
WIRE -512 48 -624 48
WIRE -400 48 -432 48
WIRE -288 48 -320 48
WIRE -224 48 -288 48
WIRE -96 48 -224 48
WIRE 32 48 -96 48
WIRE 144 48 112 48
WIRE 256 48 224 48
WIRE 320 48 256 48
WIRE 432 48 320 48
WIRE 608 48 608 -48
WIRE 608 48 512 48
WIRE 640 48 608 48
WIRE 768 48 720 48
WIRE 864 48 864 -48
WIRE 864 48 848 48
WIRE 976 48 864 48
WIRE 1088 48 976 48
WIRE 1296 48 1296 -48
WIRE 1296 48 1088 48
WIRE 1328 48 1296 48
WIRE 1456 48 1408 48
WIRE 1552 48 1552 -48
WIRE 1552 48 1536 48
WIRE 1664 48 1552 48
WIRE 1776 48 1664 48
WIRE 1888 48 1776 48
WIRE 2032 48 1888 48
WIRE 2640 48 2528 48
WIRE 2800 48 2640 48
WIRE 2960 48 2800 48
WIRE 3104 48 2960 48
WIRE 3216 48 3104 48
WIRE -288 80 -288 48
WIRE -96 80 -96 48
WIRE 256 80 256 48
WIRE 976 80 976 48
WIRE 1088 80 1088 48
WIRE 1664 80 1664 48
WIRE 1776 80 1776 48
WIRE 1888 80 1888 48
WIRE 2640 80 2640 48
WIRE 2800 80 2800 48
WIRE 3216 112 3216 48
WIRE 2256 144 2112 144
WIRE 2448 144 2320 144
WIRE -288 176 -288 144
WIRE -96 176 -96 144
WIRE 256 176 256 144
WIRE 976 176 976 144
WIRE 1088 176 1088 144
WIRE 1664 176 1664 144
WIRE 1776 176 1776 144
WIRE 1888 176 1888 144
WIRE 2640 176 2640 144
WIRE 2800 176 2800 144
WIRE -624 208 -624 48
WIRE -224 224 -224 48
WIRE 320 224 320 48
WIRE 2032 240 2032 48
WIRE 2112 240 2112 144
WIRE 2112 240 2032 240
WIRE 2144 240 2112 240
WIRE 2352 240 2224 240
WIRE 2448 240 2448 144
WIRE 2448 240 2432 240
WIRE 2528 240 2528 48
WIRE 2528 240 2448 240
WIRE 3104 256 3104 48
WIRE 3216 256 3216 192
WIRE 3248 256 3216 256
WIRE 2528 272 2528 240
WIRE -96 288 -96 256
WIRE 976 288 976 256
WIRE 1088 288 1088 256
WIRE 1664 288 1664 256
WIRE 1776 288 1776 256
WIRE 1888 288 1888 256
WIRE 2640 288 2640 256
WIRE 2800 288 2800 256
WIRE 2112 368 2032 368
WIRE 2144 368 2112 368
WIRE 2352 368 2224 368
WIRE 2448 368 2432 368
WIRE 2528 368 2528 336
WIRE 2528 368 2448 368
WIRE -96 400 -96 368
WIRE -64 400 -96 400
WIRE 2640 400 2640 368
WIRE 2800 400 2800 368
WIRE 1088 416 1088 368
WIRE 1776 416 1776 368
WIRE 1888 416 1888 368
WIRE -624 464 -624 288
WIRE -512 464 -624 464
WIRE -400 464 -432 464
WIRE -288 464 -320 464
WIRE -224 464 -224 288
WIRE -224 464 -288 464
WIRE -96 464 -224 464
WIRE 32 464 -96 464
WIRE 144 464 112 464
WIRE 256 464 224 464
WIRE 320 464 320 288
WIRE 320 464 256 464
WIRE 432 464 320 464
WIRE 608 464 512 464
WIRE 640 464 608 464
WIRE 768 464 720 464
WIRE 864 464 848 464
WIRE 976 464 976 368
WIRE 976 464 864 464
WIRE 1296 464 1200 464
WIRE 1328 464 1296 464
WIRE 1456 464 1408 464
WIRE 1552 464 1536 464
WIRE 1664 464 1664 368
WIRE 1664 464 1552 464
WIRE 2112 464 2112 368
WIRE 2272 464 2112 464
WIRE 2448 464 2448 368
WIRE 2448 464 2336 464
WIRE -288 496 -288 464
WIRE -96 496 -96 464
WIRE 256 496 256 464
WIRE 2640 512 2640 480
WIRE 2672 512 2640 512
WIRE 2800 512 2800 480
WIRE 2832 512 2800 512
WIRE 1888 528 1888 496
WIRE 2000 528 1888 528
WIRE 608 560 608 464
WIRE 704 560 608 560
WIRE 864 560 864 464
WIRE 864 560 768 560
WIRE 976 560 976 464
WIRE 1088 560 1088 496
WIRE 1088 560 976 560
WIRE 1200 560 1200 464
WIRE 1200 560 1088 560
WIRE 1296 560 1296 464
WIRE 1392 560 1296 560
WIRE 1552 560 1552 464
WIRE 1552 560 1456 560
WIRE 1664 560 1664 464
WIRE 1776 560 1776 496
WIRE 1776 560 1664 560
WIRE 1888 560 1888 528
WIRE 2528 560 2528 368
WIRE 2640 560 2528 560
WIRE 2800 560 2640 560
WIRE 2960 560 2960 288
WIRE 2960 560 2800 560
WIRE 3104 560 3104 336
WIRE 3104 560 2960 560
WIRE 3216 560 3104 560
WIRE -592 592 -624 592
WIRE -288 592 -288 560
WIRE -96 592 -96 560
WIRE 256 592 256 560
WIRE 2640 592 2640 560
WIRE 2800 592 2800 560
WIRE 3216 624 3216 560
WIRE -624 640 -624 592
WIRE 2000 656 2000 528
WIRE 1888 688 1888 640
WIRE 2640 688 2640 656
WIRE 2800 688 2800 656
WIRE -96 704 -96 672
WIRE -624 768 -624 720
WIRE 3216 768 3216 704
WIRE 3248 768 3216 768
WIRE 1888 784 1888 768
WIRE 2000 784 2000 720
WIRE 2000 784 1888 784
WIRE 2640 800 2640 768
WIRE 2800 800 2800 768
WIRE -96 816 -96 784
WIRE 1776 832 1776 560
WIRE 1888 832 1888 784
WIRE 1888 832 1776 832
WIRE 2032 832 2032 368
WIRE 2032 832 1888 832
WIRE -624 896 -624 848
WIRE 2640 912 2640 880
WIRE 2800 912 2800 880
WIRE 2640 1024 2640 992
WIRE 2672 1024 2640 1024
WIRE 2800 1024 2800 992
WIRE 2832 1024 2800 1024
FLAG 2960 48 LOAD_1
FLAG 2960 560 LOAD_2
FLAG -624 48 PS_1
FLAG -624 464 PS_2
FLAG -288 176 CHASSIS
FLAG -288 592 CHASSIS
FLAG -96 816 CHASSIS
FLAG 256 176 CHASSIS
FLAG 256 592 CHASSIS
FLAG -64 400 CHASSIS
FLAG 2672 512 CHASSIS
FLAG -624 896 0
FLAG -592 592 CHASSIS
FLAG 3248 256 CHASSIS
FLAG 3248 768 CHASSIS
FLAG 2672 1024 CHASSIS
FLAG 2832 512 CHASSIS
FLAG 2832 1024 CHASSIS
SYMBOL voltage -624 192 R0
WINDOW 123 24 124 Left 4
WINDOW 39 0 0 Left 0
WINDOW 3 1 -404 Left 4
SYMATTR Value2 AC 0 0
SYMATTR Value SINE(0 {ac_amp} {fac})
SYMATTR InstName V1
SYMBOL ind -528 64 R270
WINDOW 0 32 56 VTop 2
WINDOW 3 5 56 VBottom 2
SYMATTR InstName L1
SYMATTR Value 1µ
SYMATTR SpiceLine Rser=1m
SYMBOL res -304 32 R90
WINDOW 0 0 56 VBottom 2
WINDOW 3 32 56 VTop 2
SYMATTR InstName R1
SYMATTR Value 19m
SYMBOL cap -304 80 R0
SYMATTR InstName C1
SYMATTR Value 50p
SYMBOL cap -112 80 R0
SYMATTR InstName C2
SYMATTR Value 10µ
SYMBOL ind -112 160 R0
SYMATTR InstName L2
SYMATTR Value 10n
SYMATTR SpiceLine Rser=1m
SYMBOL ind 16 64 R270
WINDOW 0 32 56 VTop 2
WINDOW 3 5 56 VBottom 2
SYMATTR InstName L3
SYMATTR Value 1µ
SYMATTR SpiceLine Rser=1m
SYMBOL res 240 32 R90
WINDOW 0 0 56 VBottom 2
WINDOW 3 32 56 VTop 2
SYMATTR InstName R2
SYMATTR Value 19m
SYMBOL cap 240 80 R0
SYMATTR InstName C3
SYMATTR Value 50p
SYMBOL res -112 272 R0
SYMATTR InstName R3
SYMATTR Value 19m
SYMBOL ind 624 64 R270
WINDOW 0 32 56 VTop 2
WINDOW 3 5 56 VBottom 2
SYMATTR InstName L4
SYMATTR Value 220µ
SYMATTR SpiceLine Rser=1m
SYMBOL res 864 32 R90
WINDOW 0 0 56 VBottom 2
WINDOW 3 32 56 VTop 2
SYMATTR InstName R4
SYMATTR Value 19m
SYMBOL cap 960 80 R0
SYMATTR InstName C4
SYMATTR Value 0.1µ
SYMBOL ind 960 160 R0
SYMATTR InstName L5
SYMATTR Value 10n
SYMATTR SpiceLine Rser=1m
SYMBOL res 960 272 R0
SYMATTR InstName R5
SYMATTR Value 19m
SYMBOL ind 1312 64 R270
WINDOW 0 32 56 VTop 2
WINDOW 3 5 56 VBottom 2
SYMATTR InstName L6
SYMATTR Value 220µ
SYMATTR SpiceLine Rser=1m
SYMBOL res 1552 32 R90
WINDOW 0 0 56 VBottom 2
WINDOW 3 32 56 VTop 2
SYMATTR InstName R6
SYMATTR Value 19m
SYMBOL cap 1648 80 R0
SYMATTR InstName C5
SYMATTR Value 0.1µ
SYMBOL ind 1648 160 R0
SYMATTR InstName L7
SYMATTR Value 10n
SYMATTR SpiceLine Rser=1m
SYMBOL res 1648 272 R0
SYMATTR InstName R7
SYMATTR Value 19m
SYMBOL ind2 2240 224 R90
WINDOW 0 4 56 VBottom 2
WINDOW 3 32 56 VTop 2
SYMATTR InstName L8
SYMATTR Value 3m
SYMATTR SpiceLine Rser=1m
SYMBOL ind2 2240 352 R90
WINDOW 0 4 56 VBottom 2
WINDOW 3 32 56 VTop 2
SYMATTR InstName L9
SYMATTR Value 3m
SYMATTR SpiceLine Rser=1m
SYMBOL ind -528 480 R270
WINDOW 0 32 56 VTop 2
WINDOW 3 5 56 VBottom 2
SYMATTR InstName L10
SYMATTR Value 1µ
SYMATTR SpiceLine Rser=1m
SYMBOL res -304 448 R90
WINDOW 0 0 56 VBottom 2
WINDOW 3 32 56 VTop 2
SYMATTR InstName R8
SYMATTR Value 19m
SYMBOL cap -304 496 R0
SYMATTR InstName C6
SYMATTR Value 50p
SYMBOL cap -112 496 R0
SYMATTR InstName C7
SYMATTR Value 10µ
SYMBOL ind -112 576 R0
SYMATTR InstName L11
SYMATTR Value 10n
SYMATTR SpiceLine Rser=1m
SYMBOL ind 16 480 R270
WINDOW 0 32 56 VTop 2
WINDOW 3 5 56 VBottom 2
SYMATTR InstName L12
SYMATTR Value 1µ
SYMATTR SpiceLine Rser=1m
SYMBOL res 240 448 R90
WINDOW 0 0 56 VBottom 2
WINDOW 3 32 56 VTop 2
SYMATTR InstName R9
SYMATTR Value 19m
SYMBOL cap 240 496 R0
SYMATTR InstName C8
SYMATTR Value 50p
SYMBOL res -112 688 R0
SYMATTR InstName R10
SYMATTR Value 19m
SYMBOL ind 624 480 R270
WINDOW 0 32 56 VTop 2
WINDOW 3 5 56 VBottom 2
SYMATTR InstName L13
SYMATTR Value 220µ
SYMATTR SpiceLine Rser=1m
SYMBOL res 864 448 R90
WINDOW 0 0 56 VBottom 2
WINDOW 3 32 56 VTop 2
SYMATTR InstName R11
SYMATTR Value 19m
SYMBOL res 2448 224 R90
WINDOW 0 0 56 VBottom 2
WINDOW 3 32 56 VTop 2
SYMATTR InstName R12
SYMATTR Value 99m
SYMBOL res 2448 352 R90
WINDOW 0 0 56 VBottom 2
WINDOW 3 32 56 VTop 2
SYMATTR InstName R13
SYMATTR Value 99m
SYMBOL cap 2624 80 R0
SYMATTR InstName C9
SYMATTR Value 1.5n
SYMBOL ind 2624 160 R0
SYMATTR InstName L14
SYMATTR Value 10n
SYMATTR SpiceLine Rser=1m
SYMBOL res 2624 272 R0
SYMATTR InstName R14
SYMATTR Value 19m
SYMBOL cap 2624 592 R0
SYMATTR InstName C10
SYMATTR Value 1.5n
SYMBOL ind 2624 672 R0
SYMATTR InstName L15
SYMATTR Value 10n
SYMATTR SpiceLine Rser=1m
SYMBOL res 2624 784 R0
SYMATTR InstName R15
SYMATTR Value 19m
SYMBOL ind 1312 480 R270
WINDOW 0 32 56 VTop 2
WINDOW 3 5 56 VBottom 2
SYMATTR InstName L16
SYMATTR Value 220µ
SYMATTR SpiceLine Rser=1m
SYMBOL res 1552 448 R90
WINDOW 0 0 56 VBottom 2
WINDOW 3 32 56 VTop 2
SYMATTR InstName R16
SYMATTR Value 19m
SYMBOL cap 1760 80 R0
SYMATTR InstName C11
SYMATTR Value 0.15µ
SYMBOL ind 1760 160 R0
SYMATTR InstName L17
SYMATTR Value 10n
SYMATTR SpiceLine Rser=1m
SYMBOL res 1760 272 R0
SYMATTR InstName R17
SYMATTR Value 19m
SYMBOL res 1760 400 R0
SYMATTR InstName R18
SYMATTR Value 68
SYMBOL res 2944 192 R0
SYMATTR InstName R19
SYMATTR Value 28.75
SYMBOL cap 768 -64 R90
WINDOW 0 0 32 VBottom 2
WINDOW 3 32 32 VTop 2
SYMATTR InstName C12
SYMATTR Value 5p
SYMBOL cap 1456 -64 R90
WINDOW 0 0 32 VBottom 2
WINDOW 3 32 32 VTop 2
SYMATTR InstName C13
SYMATTR Value 5p
SYMBOL cap 768 544 R90
WINDOW 0 0 32 VBottom 2
WINDOW 3 32 32 VTop 2
SYMATTR InstName C14
SYMATTR Value 5p
SYMBOL cap 1456 544 R90
WINDOW 0 0 32 VBottom 2
WINDOW 3 32 32 VTop 2
SYMATTR InstName C15
SYMATTR Value 5p
SYMBOL cap 2512 272 R0
SYMATTR InstName C16
SYMATTR Value 10p
SYMBOL cap -240 224 R0
SYMATTR InstName C17
SYMATTR Value 50p
SYMBOL cap 304 224 R0
SYMATTR InstName C18
SYMATTR Value 50p
SYMBOL ind -640 624 R0
SYMATTR InstName L18
SYMATTR Value 10n
SYMATTR SpiceLine Rser=1m
SYMBOL res -640 752 R0
SYMATTR InstName R20
SYMATTR Value 5m
SYMBOL cap 1072 80 R0
SYMATTR InstName C19
SYMATTR Value 0.15µ
SYMBOL ind 1072 160 R0
SYMATTR InstName L19
SYMATTR Value 10n
SYMATTR SpiceLine Rser=1m
SYMBOL res 1072 272 R0
SYMATTR InstName R21
SYMATTR Value 19m
SYMBOL res 1072 400 R0
SYMATTR InstName R22
SYMATTR Value 68
SYMBOL voltage 528 48 R90
WINDOW 0 -32 56 VBottom 2
WINDOW 3 32 56 VTop 2
WINDOW 123 0 0 Left 0
WINDOW 39 0 0 Left 0
SYMATTR InstName VPROBE_HOT
SYMATTR Value 0
SYMBOL voltage 528 464 R90
WINDOW 0 -32 56 VBottom 2
WINDOW 3 32 56 VTop 2
WINDOW 123 0 0 Left 0
WINDOW 39 0 0 Left 0
SYMATTR InstName VPROBE_RTN
SYMATTR Value 0
SYMBOL current 3104 336 R180
WINDOW 0 24 80 Left 2
WINDOW 3 -83 629 Left 4
WINDOW 123 -155 -23 Left 4
WINDOW 39 0 0 Left 0
SYMATTR InstName I1
SYMATTR Value PULSE({-Idm_pp_2} {Idm_pp_2} 0 50n 50n {Tsw_2} {Tsw})
SYMATTR Value2 AC 1 0
SYMBOL current 3216 192 R180
WINDOW 0 24 80 Left 2
WINDOW 3 33 398 Left 4
WINDOW 123 -230 40 Left 4
WINDOW 39 0 0 Left 0
SYMATTR InstName I2
SYMATTR Value PULSE({-Icm_pp_4} {Icm_pp_4} 0 50n 50n {Tsw_2} {Tsw})
SYMATTR Value2 AC 0 0
SYMBOL current 3216 704 R180
WINDOW 0 24 80 Left 2
WINDOW 3 32 815 Left 4
WINDOW 123 -234 40 Left 4
WINDOW 39 0 0 Left 0
SYMATTR InstName I3
SYMATTR Value PULSE({-Icm_pp_4} {Icm_pp_4} 0 50n 50n {Tsw_2} {Tsw})
SYMATTR Value2 AC 0 0
SYMBOL cap 2320 128 R90
WINDOW 0 0 32 VBottom 2
WINDOW 3 32 32 VTop 2
SYMATTR InstName C20
SYMATTR Value 10p
SYMBOL cap 2336 448 R90
WINDOW 0 0 32 VBottom 2
WINDOW 3 32 32 VTop 2
SYMATTR InstName C21
SYMATTR Value 10p
SYMBOL res 2624 384 R0
SYMATTR InstName R23
SYMATTR Value 0
SYMBOL res 2624 896 R0
SYMATTR InstName R24
SYMATTR Value 0
SYMBOL cap 2784 80 R0
SYMATTR InstName C22
SYMATTR Value 3.3n
SYMBOL ind 2784 160 R0
SYMATTR InstName L20
SYMATTR Value 10n
SYMATTR SpiceLine Rser=1m
SYMBOL res 2784 272 R0
SYMATTR InstName R25
SYMATTR Value 19m
SYMBOL res 2784 384 R0
SYMATTR InstName R26
SYMATTR Value 1.8k
SYMBOL cap 2784 592 R0
SYMATTR InstName C23
SYMATTR Value 3.3n
SYMBOL ind 2784 672 R0
SYMATTR InstName L21
SYMATTR Value 10n
SYMATTR SpiceLine Rser=1m
SYMBOL res 2784 784 R0
SYMATTR InstName R27
SYMATTR Value 19m
SYMBOL res 2784 896 R0
SYMATTR InstName R28
SYMATTR Value 1.8k
SYMBOL cap 1872 80 R0
SYMATTR InstName C24
SYMATTR Value 0.1µ
SYMBOL ind 1872 160 R0
SYMATTR InstName L22
SYMATTR Value 10n
SYMATTR SpiceLine Rser=1m
SYMBOL res 1872 272 R0
SYMATTR InstName R29
SYMATTR Value 19m
SYMBOL res 1872 400 R0
SYMATTR InstName R30
SYMATTR Value 47
SYMBOL ind 1872 544 R0
SYMATTR InstName L23
SYMATTR Value 4.7m
SYMATTR SpiceLine Rser=1m
SYMBOL res 1904 784 R180
WINDOW 0 36 76 Left 2
WINDOW 3 36 40 Left 2
SYMATTR InstName R31
SYMATTR Value 19m
SYMBOL cap 2016 720 R180
WINDOW 0 24 56 Left 2
WINDOW 3 24 8 Left 2
SYMATTR InstName C25
SYMATTR Value 5p
TEXT -456 -32 Left 2 ;LINE_PS(1m)
TEXT -168 -32 Left 2 ;C_THROUGH
TEXT 64 -32 Left 2 ;LINE_INPUT(1m)
TEXT 2184 56 Left 2 !K1 L8 L9 0.998
TEXT 952 0 Left 2 ;CX1
TEXT 1640 8 Left 2 ;CX2
TEXT 2616 8 Left 2 ;CY1
TEXT 2640 1080 Left 2 ;CY2
TEXT 2248 24 Left 2 ;LCM
TEXT 648 120 Left 2 ;LDM1
TEXT 648 392 Left 2 ;LDM2
TEXT 1336 112 Left 2 ;LDM3
TEXT 1336 400 Left 2 ;LDM4
TEXT 1704 -24 Left 2 ;RC_DUMPER
TEXT -632 -104 Left 4 ;.tran 40m
TEXT -48 -328 Left 4 !.param acrms=115 ac_amp=acrms*sqrt(2) fac=400
TEXT -632 -160 Left 4 !.ac dec 200 100 100meg
TEXT 664 -120 Left 2 ;EMI_FILTER
TEXT -48 -232 Left 4 !.param Idm_pp=0 Idm_pp_2=Idm_pp/2
TEXT -48 -280 Left 4 !.param Tsw_2=Tsw/2 Tsw=1/fsw fsw=125k
TEXT -48 -184 Left 4 !.param Icm_pp=0 Icm_pp_4=Icm_pp/4
TEXT 2000 -336 Left 4 ;I1_IDM_HOT_RTN
TEXT 2000 -240 Left 4 ;I2_ICM_HOT_CHASSIS
TEXT 2000 -152 Left 4 ;I3_ICM_RTN_CHASSIS
TEXT 3296 104 Left 3 ;AC 0.5 0 at COMMON MODE
TEXT 3296 616 Left 3 ;AC 0.5 0 at COMMON MODE
TEXT 3168 312 Left 3 ;AC 1 0 at NORMAL MODE
TEXT 1024 -32 Left 2 ;RC_DUMPER
TEXT 2808 1080 Left 2 ;RC_DUMPER
TEXT 2728 8 Left 2 ;RC_DUMPER
TEXT -40 -408 Left 4 !.meas tran P_R18 AVG I(R18)**2*62 FROM 20m TO 30m
TEXT 832 -232 Left 4 ;Idm_pp = 1
TEXT 832 -184 Left 4 ;Icm_pp = 20m
TEXT 1824 568 VRight 2 ;LDM3
